*KEYWORD
$
$ File created by cubit version 17.0
$...>....1....>....2....>....3....>....4....>....5....>....6....>....7....>....8
*TITLE
$ cubit(BIM15/OneDrive/Рабочий стол/prac/answer_part.k): 11/15/2020: 22
*PART
Block 1
$    pid     sid     mid   eosid    hgid    grav  adpopt    tmid
       1       1     100       0       0       0       0     100
*SECTION_SHELL
       1
$     t1      t2      t3      t4
       1       1       1       1

*MAT_ELASTIC
     100   7e-06  206800    0.29     0.0     0.0       0
*MAT_THERMAL_ISOTROPIC
     100     0.0     0.0     0.0     0.0     0.0
     500   0.045
*NODE
$    nid               x               y               z      tc      rc
      10         1.60697         1.91511               0       0       0
      46         2.02473         2.02473               0       0       0
       9         1.91511         1.60697               0       0       0
      77         4.36225        0.360433               0       0       0
      47         4.62777        0.583598               0       0       0
      41         4.58333               0               0       0       0
       4               5               5               0       0       0
      40               5         4.58333               0       0       0
      19         4.58333               5               0       0       0
      48         4.36451         4.63066               0       0       0
      20         4.16667               5               0       0       0
       3               0               5               0       0       0
      29        0.416667               5               0       0       0
      14               0         4.58333               0       0       0
      66        0.584643         4.63557               0       0       0
      16               0            3.75               0       0       0
      50        0.375754         3.53399               0       0       0
      17               0         3.33333               0       0       0
      13        0.434121         2.46202               0       0       0
       2               0             2.5               0       0       0
$ ... 128 like lines cut
$
$...>....1....>....2....>....3....>....4....>....5....>....6....>....7....>....8
$    eid     pid      n1      n2      n3      n4      n5      n6      n7      n8
*ELEMENT_SHELL
       1       1      10      46       9       9
       2       1      77      47      41      41
       3       1       4      40      19      19
       4       1      19      48      20      20
       5       1       3      29      14      14
       6       1      14      29      66      66
       7       1      16      50      17      17
       8       1      13       2      18      18
       9       1      10      11      51      51
      10       1      11      12      52      52
      11       1      15      49      53      53
      12       1      12      13      54      54
      13       1      17      50      55      55
      14       1       1       6      45      45
      15       1       7       8      56      56
      16       1       8       9      57      57
      17       1      20      48      58      58
      18       1      21      58      59      59
      19       1      99      84     116     116
      20       1      24      61      62      62
$ ... 229 like lines cut
*END
