*KEYWORD
$
$ File created by cubit version 17.0
$...>....1....>....2....>....3....>....4....>....5....>....6....>....7....>....8
*TITLE
$ cubit(s/BIM15/OneDrive/Рабочий стол/prac/answer_hw.k): 10/19/2020: 11
*PART
Block 1
$    pid     sid     mid   eosid    hgid    grav  adpopt    tmid
       1       1     100       0       0       0       0     100
*SECTION_SHELL
       1
$     t1      t2      t3      t4
       1       1       1       1

*MAT_ELASTIC
     100   7e-06  206800    0.29     0.0     0.0       0
*MAT_THERMAL_ISOTROPIC
     100     0.0     0.0     0.0     0.0     0.0
     500   0.045
*NODE
$    nid               x               y               z      tc      rc
      67         4.59746         0.78176               0       0       0
      28               5               0               0       0       0
      29         4.16667               0               0       0       0
       5              10              10               0       0       0
      66              10         9.16667               0       0       0
      45         9.16667              10               0       0       0
      47             7.5              10               0       0       0
      68          7.0917          9.2356               0       0       0
      48         6.66667              10               0       0       0
      35               0         8.33333               0       0       0
      69          0.7721         7.94801               0       0       0
      36               0             7.5               0       0       0
      25             7.5               0               0       0       0
      26         6.66667               0               0       0       0
      70         7.09183        0.764389               0       0       0
      23         9.16667               0               0       0       0
      24         8.33333               0               0       0       0
      71         8.72776        0.742089               0       0       0
       2              10               0               0       0       0
      56              10        0.833333               0       0       0
$ ... 134 like lines cut
$
$...>....1....>....2....>....3....>....4....>....5....>....6....>....7....>....8
$    eid     pid      n1      n2      n3      n4      n5      n6      n7      n8
*ELEMENT_SHELL
       1       1      67      28      29      29
       2       1       5      66      45      45
       3       1      47      68      48      48
       4       1      35      69      36      36
       5       1      25      26      70      70
       6       1      23      24      71      71
       7       1       2      23      56      56
       8       1      18      19      72      72
       9       1      22       1      73      73
      10       1      21      22      74      74
      11       1      20      21      75      75
      12       1      70      76      25      25
      13       1      19      20      77      77
      14       1      77     127      19      19
      15       1      16      17      79      79
      16       1      72      80      67      67
      17       1      17      18      81      81
      18       1      15      16      82      82
      19       1      67      29      83      83
      20       1      79      81     148     148
$ ... 222 like lines cut
*END
